ID MSC-NASTRAN V68
SOL 153
TIME 10
CEND


TITLE = EXAMPLE 1b
ANALYSIS = HEAT
THERMAL = ALL
FLUX = ALL
SPCF = ALL
OLOAD = ALL

SPC = 10
TEMP(INIT) = 20
NLPARM = 100


BEGIN BULK
NLPARM,100
$
GRID,1,,0.0,0.0,0.0
GRID,2,,0.1,0.0,0.0
GRID,3,,0.2,0.0,0.0
GRID,4,,0.3,0.0,0.0
GRID,5,,0.4,0.0,0.0
GRID,6,,0.5,0.0,0.0
GRID,99,,99.0,99.0,99.0
$
CROD,1,5,1,2
CROD,2,5,2,3
CROD,3,5,3,4
CROD,4,5,4,5
CROD,5,5,5,6

PROD,5,15,.0078540
MAT4,15,204.0,,,1.83

$
$ 
$ Defines a boundary condition surface element with reference to a PHBDY entry.
$ 
CHBDYP,10,25,LINE,,,1,2,,+CHP10
+CHP10,,,,,0.0,1.0,0.0
CHBDYP,20,25,LINE,,,2,3,,+CHP20
+CHP20,,,,,0.0,1.0,0.0
CHBDYP,30,25,LINE,,,3,4,,+CHP30
+CHP30,,,,,0.0,1.0,0.0
CHBDYP,40,25,LINE,,,4,5,,+CHP40
+CHP40,,,,,0.0,1.0,0.0
CHBDYP,50,25,LINE,,,5,6,,+CHP50
+CHP50,,,,,0.0,1.0,0.0

PHBDY,25,.3141593
$
CONV,10,35,,,99,99
CONV,20,35,,,99,99
CONV,30,35,,,99,99
CONV,40,35,,,99,99
CONV,50,35,,,99,99
PCONV,35,15,0,0.25
$
SPC,10,1,,1300.0
SPC,10,99,,300.0
TEMPD,20,1300.0
$
ENDDATA