ID MSC-NASTRAN V68
SOL 153 
TIME 10
CEND
TITLE = EXAMPLE 5a 
ANALYSIS = HEAT
THERMAL = ALL
FLUX = ALL
SPCF = ALL
OLOAD = ALL
SPC = 10
TEMP(INIT) = 20
NLPARM = 100
BEGIN BULK
PARAM,TABS,0.0
PARAM,SIGMA,5.67E-08
NLPARM,100
$
GRID,1,,0.0,0.0,0.0
GRID,2,,0.0,1.0,0.0
GRID,3,,0.0,1.0,1.0
GRID,4,,0.0,0.0,1.0
GRID,5,,1.0,0.0,0.0
GRID,6,,1.0,1.0,0.0
GRID,7,,1.0,1.0,1.0
GRID,8,,1.0,0.0,1.0
GRID,9,,2.0,0.0,0.0
GRID,10,,2.0,1.0,0.0
GRID,11,,2.0,1.0,1.0
GRID,12,,2.0,0.0,1.0
GRID,13,,1.5,0.0,-1.0
GRID,14,,1.5,1.0,-1.0 
GRID,15,,0.5,1.0,-1.0 
GRID,16,,0.5,0.0,-1.0
$
CQUAD4,1,5,1,2,3,4 
CQUAD4,2,5,5,6,7,8
CQUAD4,3,5,9,12,11,10
CQUAD4,4,5,13,14,15,16
PSHELL,5,15,0.1
MAT4,15,204.0
$
CHBDYG,10,,AREA4,55,,45,,,+CHG10
+CHG10,1,2,3,4
CHBDYG,20,,AREA4,56,,45,,,+CHG20
+CHG20,5,6,7,8
CHBDYG,21,,AREA4,56,,45,,,+CHG21
+CHG21,5,8,7,6
CHBDYG,30,,AREA4,55,,45,,,+CHG30
+CHG30,9,12,11,10
CHBDYG,40,,AREA4,57,,45,,,+CHG40
+CHG40,13,14,15,16
$
RADM,45,1.0,1.0
RADSET,65
RADCAV,65,,YES
VIEW,55,65,KBSHD
VIEW,56,65,KSHD
VIEW,57,65,NONE
VIEW3D,65,,,,,,,3 
$
SPC,10,1,,2000.0,2,,2000.0
SPC,10,3,,2000.0,4,,2000.0
TEMPD,20,2000.0
$
ENDDATA